examples/transmission/output/ieee118_syn.raw
0,100.0,35,0,0,50.0
Wed, 6 May 2026 12:14:36 GMT network

0 / END OF SYSTEM-WIDE DATA, BEGIN BUS DATA
1,'sub_0_0',345.0,2,1,1,1,1.0,0.0,1.05,0.95,1.05,0.95
2,'sub_1_0',345.0,1,1,1,1,1.0,0.0,1.05,0.95,1.05,0.95
3,'sub_2_0',345.0,1,1,1,1,1.0,0.0,1.05,0.95,1.05,0.95
4,'sub_3_0',345.0,2,1,1,1,1.0,0.0,1.05,0.95,1.05,0.95
5,'sub_4_0',345.0,1,1,1,1,1.0,0.0,1.05,0.95,1.05,0.95
6,'sub_5_0',345.0,1,1,1,1,1.0,0.0,1.05,0.95,1.05,0.95
7,'sub_6_0',345.0,2,1,1,1,1.0,0.0,1.05,0.95,1.05,0.95
8,'sub_7_0',345.0,1,1,1,1,1.0,0.0,1.05,0.95,1.05,0.95
9,'sub_8_0',345.0,2,1,1,1,1.0,0.0,1.05,0.95,1.05,0.95
10,'sub_9_0',345.0,1,1,1,1,1.0,0.0,1.05,0.95,1.05,0.95
11,'sub_10_0',345.0,2,1,1,1,1.0,0.0,1.05,0.95,1.05,0.95
12,'sub_11_0',345.0,2,1,1,1,1.0,0.0,1.05,0.95,1.05,0.95
13,'sub_12_0',345.0,1,1,1,1,1.0,0.0,1.05,0.95,1.05,0.95
14,'sub_13_0',345.0,2,1,1,1,1.0,0.0,1.05,0.95,1.05,0.95
15,'sub_14_0',161.0,1,1,1,1,1.0,0.0,1.05,0.95,1.05,0.95
16,'sub_15_0',161.0,1,1,1,1,1.0,0.0,1.05,0.95,1.05,0.95
17,'sub_16_0',138.0,2,1,1,1,1.0,0.0,1.05,0.95,1.05,0.95
18,'sub_17_0',138.0,2,1,1,1,1.0,0.0,1.05,0.95,1.05,0.95
19,'sub_18_0',138.0,1,1,1,1,1.0,0.0,1.05,0.95,1.05,0.95
20,'sub_19_0',138.0,2,1,1,1,1.0,0.0,1.05,0.95,1.05,0.95
21,'sub_20_0',138.0,2,1,1,1,1.0,0.0,1.05,0.95,1.05,0.95
22,'sub_21_0',138.0,1,1,1,1,1.0,0.0,1.05,0.95,1.05,0.95
23,'sub_22_0',138.0,2,1,1,1,1.0,0.0,1.05,0.95,1.05,0.95
24,'sub_23_0',138.0,2,1,1,1,1.0,0.0,1.05,0.95,1.05,0.95
25,'sub_24_0',138.0,2,1,1,1,1.0,0.0,1.05,0.95,1.05,0.95
26,'sub_25_0',138.0,2,1,1,1,1.0,0.0,1.05,0.95,1.05,0.95
27,'sub_26_0',138.0,2,1,1,1,1.0,0.0,1.05,0.95,1.05,0.95
28,'sub_27_0',138.0,2,1,1,1,1.0,0.0,1.05,0.95,1.05,0.95
29,'sub_28_0',138.0,1,1,1,1,1.0,0.0,1.05,0.95,1.05,0.95
30,'sub_29_0',138.0,2,1,1,1,1.0,0.0,1.05,0.95,1.05,0.95
31,'sub_30_0',138.0,1,1,1,1,1.0,0.0,1.05,0.95,1.05,0.95
32,'sub_31_0',138.0,2,1,1,1,1.0,0.0,1.05,0.95,1.05,0.95
33,'sub_32_0',138.0,2,1,1,1,1.0,0.0,1.05,0.95,1.05,0.95
34,'sub_33_0',138.0,1,1,1,1,1.0,0.0,1.05,0.95,1.05,0.95
35,'sub_34_0',138.0,2,1,1,1,1.0,0.0,1.05,0.95,1.05,0.95
36,'sub_35_0',138.0,2,1,1,1,1.0,0.0,1.05,0.95,1.05,0.95
37,'sub_36_0',138.0,1,1,1,1,1.0,0.0,1.05,0.95,1.05,0.95
38,'sub_37_0',138.0,2,1,1,1,1.0,0.0,1.05,0.95,1.05,0.95
39,'sub_38_0',138.0,2,1,1,1,1.0,0.0,1.05,0.95,1.05,0.95
40,'sub_39_0',138.0,1,1,1,1,1.0,0.0,1.05,0.95,1.05,0.95
41,'sub_40_0',138.0,1,1,1,1,1.0,0.0,1.05,0.95,1.05,0.95
42,'sub_41_0',138.0,2,1,1,1,1.0,0.0,1.05,0.95,1.05,0.95
43,'sub_42_0',138.0,2,1,1,1,1.0,0.0,1.05,0.95,1.05,0.95
44,'sub_43_0',138.0,2,1,1,1,1.0,0.0,1.05,0.95,1.05,0.95
45,'sub_44_0',138.0,1,1,1,1,1.0,0.0,1.05,0.95,1.05,0.95
46,'sub_45_0',138.0,2,1,1,1,1.0,0.0,1.05,0.95,1.05,0.95
47,'sub_46_0',138.0,1,1,1,1,1.0,0.0,1.05,0.95,1.05,0.95
48,'sub_47_0',138.0,2,1,1,1,1.0,0.0,1.05,0.95,1.05,0.95
49,'sub_48_0',138.0,2,1,1,1,1.0,0.0,1.05,0.95,1.05,0.95
50,'sub_49_0',138.0,2,1,1,1,1.0,0.0,1.05,0.95,1.05,0.95
51,'sub_50_0',138.0,2,1,1,1,1.0,0.0,1.05,0.95,1.05,0.95
52,'sub_51_0',138.0,1,1,1,1,1.0,0.0,1.05,0.95,1.05,0.95
53,'sub_52_0',138.0,2,1,1,1,1.0,0.0,1.05,0.95,1.05,0.95
54,'sub_53_0',138.0,2,1,1,1,1.0,0.0,1.05,0.95,1.05,0.95
55,'sub_54_0',138.0,2,1,1,1,1.0,0.0,1.05,0.95,1.05,0.95
56,'sub_55_0',138.0,2,1,1,1,1.0,0.0,1.05,0.95,1.05,0.95
57,'sub_56_0',138.0,2,1,1,1,1.0,0.0,1.05,0.95,1.05,0.95
58,'sub_57_0',138.0,2,1,1,1,1.0,0.0,1.05,0.95,1.05,0.95
59,'sub_58_0',138.0,1,1,1,1,1.0,0.0,1.05,0.95,1.05,0.95
60,'sub_59_0',138.0,2,1,1,1,1.0,0.0,1.05,0.95,1.05,0.95
61,'sub_60_0',138.0,2,1,1,1,1.0,0.0,1.05,0.95,1.05,0.95
62,'sub_61_0',138.0,2,1,1,1,1.0,0.0,1.05,0.95,1.05,0.95
63,'sub_62_0',138.0,1,1,1,1,1.0,0.0,1.05,0.95,1.05,0.95
64,'sub_63_0',138.0,2,1,1,1,1.0,0.0,1.05,0.95,1.05,0.95
65,'sub_64_0',138.0,1,1,1,1,1.0,0.0,1.05,0.95,1.05,0.95
66,'sub_65_0',138.0,1,1,1,1,1.0,0.0,1.05,0.95,1.05,0.95
67,'sub_66_0',138.0,1,1,1,1,1.0,0.0,1.05,0.95,1.05,0.95
68,'sub_67_0',138.0,2,1,1,1,1.0,0.0,1.05,0.95,1.05,0.95
69,'sub_68_0',138.0,1,1,1,1,1.0,0.0,1.05,0.95,1.05,0.95
70,'sub_69_0',138.0,2,1,1,1,1.0,0.0,1.05,0.95,1.05,0.95
71,'sub_70_0',138.0,1,1,1,1,1.0,0.0,1.05,0.95,1.05,0.95
72,'sub_71_0',138.0,3,1,1,1,1.0,0.0,1.05,0.95,1.05,0.95
73,'sub_72_0',138.0,2,1,1,1,1.0,0.0,1.05,0.95,1.05,0.95
74,'sub_73_0',138.0,2,1,1,1,1.0,0.0,1.05,0.95,1.05,0.95
75,'sub_74_0',138.0,1,1,1,1,1.0,0.0,1.05,0.95,1.05,0.95
76,'sub_75_0',138.0,1,1,1,1,1.0,0.0,1.05,0.95,1.05,0.95
77,'sub_76_0',138.0,1,1,1,1,1.0,0.0,1.05,0.95,1.05,0.95
78,'sub_77_0',138.0,2,1,1,1,1.0,0.0,1.05,0.95,1.05,0.95
79,'sub_78_0',138.0,2,1,1,1,1.0,0.0,1.05,0.95,1.05,0.95
80,'sub_79_0',138.0,1,1,1,1,1.0,0.0,1.05,0.95,1.05,0.95
81,'sub_80_0',138.0,2,1,1,1,1.0,0.0,1.05,0.95,1.05,0.95
82,'sub_81_0',138.0,1,1,1,1,1.0,0.0,1.05,0.95,1.05,0.95
83,'sub_82_0',138.0,2,1,1,1,1.0,0.0,1.05,0.95,1.05,0.95
84,'sub_83_0',138.0,1,1,1,1,1.0,0.0,1.05,0.95,1.05,0.95
85,'sub_84_0',138.0,1,1,1,1,1.0,0.0,1.05,0.95,1.05,0.95
86,'sub_85_0',138.0,2,1,1,1,1.0,0.0,1.05,0.95,1.05,0.95
87,'sub_86_0',138.0,2,1,1,1,1.0,0.0,1.05,0.95,1.05,0.95
88,'sub_87_0',138.0,1,1,1,1,1.0,0.0,1.05,0.95,1.05,0.95
89,'sub_88_0',138.0,1,1,1,1,1.0,0.0,1.05,0.95,1.05,0.95
90,'sub_89_0',138.0,2,1,1,1,1.0,0.0,1.05,0.95,1.05,0.95
91,'sub_90_0',138.0,2,1,1,1,1.0,0.0,1.05,0.95,1.05,0.95
92,'sub_91_0',138.0,1,1,1,1,1.0,0.0,1.05,0.95,1.05,0.95
93,'sub_92_0',138.0,1,1,1,1,1.0,0.0,1.05,0.95,1.05,0.95
94,'sub_93_0',138.0,1,1,1,1,1.0,0.0,1.05,0.95,1.05,0.95
95,'sub_94_0',138.0,1,1,1,1,1.0,0.0,1.05,0.95,1.05,0.95
96,'sub_95_0',138.0,2,1,1,1,1.0,0.0,1.05,0.95,1.05,0.95
97,'sub_96_0',138.0,1,1,1,1,1.0,0.0,1.05,0.95,1.05,0.95
98,'sub_97_0',138.0,1,1,1,1,1.0,0.0,1.05,0.95,1.05,0.95
99,'sub_98_0',138.0,1,1,1,1,1.0,0.0,1.05,0.95,1.05,0.95
100,'sub_99_0',138.0,2,1,1,1,1.0,0.0,1.05,0.95,1.05,0.95
101,'sub_100_0',138.0,2,1,1,1,1.0,0.0,1.05,0.95,1.05,0.95
102,'sub_101_0',138.0,2,1,1,1,1.0,0.0,1.05,0.95,1.05,0.95
103,'sub_102_0',138.0,2,1,1,1,1.0,0.0,1.05,0.95,1.05,0.95
104,'sub_103_0',138.0,2,1,1,1,1.0,0.0,1.05,0.95,1.05,0.95
105,'sub_104_0',138.0,2,1,1,1,1.0,0.0,1.05,0.95,1.05,0.95
106,'sub_105_0',138.0,1,1,1,1,1.0,0.0,1.05,0.95,1.05,0.95
107,'sub_106_0',138.0,2,1,1,1,1.0,0.0,1.05,0.95,1.05,0.95
108,'sub_107_0',138.0,1,1,1,1,1.0,0.0,1.05,0.95,1.05,0.95
109,'sub_108_0',138.0,2,1,1,1,1.0,0.0,1.05,0.95,1.05,0.95
110,'sub_109_0',138.0,1,1,1,1,1.0,0.0,1.05,0.95,1.05,0.95
111,'sub_110_0',138.0,1,1,1,1,1.0,0.0,1.05,0.95,1.05,0.95
112,'sub_111_0',138.0,1,1,1,1,1.0,0.0,1.05,0.95,1.05,0.95
113,'sub_112_0',138.0,1,1,1,1,1.0,0.0,1.05,0.95,1.05,0.95
114,'sub_113_0',138.0,1,1,1,1,1.0,0.0,1.05,0.95,1.05,0.95
115,'sub_114_0',138.0,1,1,1,1,1.0,0.0,1.05,0.95,1.05,0.95
116,'sub_115_0',138.0,2,1,1,1,1.0,0.0,1.05,0.95,1.05,0.95
117,'sub_116_0',138.0,1,1,1,1,1.0,0.0,1.05,0.95,1.05,0.95
118,'sub_117_0',138.0,2,1,1,1,1.0,0.0,1.05,0.95,1.05,0.95
0 / END OF BUS DATA, BEGIN LOAD DATA
2,'01',1,1,1,98.56243016745904,0.0,0.0,0.0,0.0,0.0,1,1,0,0.0,0.0,0,''
3,'01',1,1,1,82.42700907222569,0.0,0.0,0.0,0.0,0.0,1,1,0,0.0,0.0,0,''
5,'01',1,1,1,39.91061238615692,0.0,0.0,0.0,0.0,0.0,1,1,0,0.0,0.0,0,''
6,'01',1,1,1,21.262010075390457,0.0,0.0,0.0,0.0,0.0,1,1,0,0.0,0.0,0,''
8,'01',1,1,1,73.14863462139958,0.0,0.0,0.0,0.0,0.0,1,1,0,0.0,0.0,0,''
10,'01',1,1,1,140.86942200094532,0.0,0.0,0.0,0.0,0.0,1,1,0,0.0,0.0,0,''
13,'01',1,1,1,24.699494842109736,0.0,0.0,0.0,0.0,0.0,1,1,0,0.0,0.0,0,''
15,'01',1,1,1,202.6965991914392,0.0,0.0,0.0,0.0,0.0,1,1,0,0.0,0.0,0,''
16,'01',1,1,1,75.88699574786945,0.0,0.0,0.0,0.0,0.0,1,1,0,0.0,0.0,0,''
19,'01',1,1,1,33.658210095845305,0.0,0.0,0.0,0.0,0.0,1,1,0,0.0,0.0,0,''
22,'01',1,1,1,43.060595194263634,0.0,0.0,0.0,0.0,0.0,1,1,0,0.0,0.0,0,''
29,'01',1,1,1,302.4339944943228,0.0,0.0,0.0,0.0,0.0,1,1,0,0.0,0.0,0,''
31,'01',1,1,1,88.31592737853704,0.0,0.0,0.0,0.0,0.0,1,1,0,0.0,0.0,0,''
34,'01',1,1,1,163.75082305086892,0.0,0.0,0.0,0.0,0.0,1,1,0,0.0,0.0,0,''
37,'01',1,1,1,40.12660005543472,0.0,0.0,0.0,0.0,0.0,1,1,0,0.0,0.0,0,''
40,'01',1,1,1,85.14720536312979,0.0,0.0,0.0,0.0,0.0,1,1,0,0.0,0.0,0,''
41,'01',1,1,1,122.43244215310555,0.0,0.0,0.0,0.0,0.0,1,1,0,0.0,0.0,0,''
45,'01',1,1,1,32.22190429231927,0.0,0.0,0.0,0.0,0.0,1,1,0,0.0,0.0,0,''
47,'01',1,1,1,667.5441272534935,0.0,0.0,0.0,0.0,0.0,1,1,0,0.0,0.0,0,''
52,'01',1,1,1,78.53902069511408,0.0,0.0,0.0,0.0,0.0,1,1,0,0.0,0.0,0,''
59,'01',1,1,1,178.1878697830708,0.0,0.0,0.0,0.0,0.0,1,1,0,0.0,0.0,0,''
63,'01',1,1,1,150.78448715540168,0.0,0.0,0.0,0.0,0.0,1,1,0,0.0,0.0,0,''
65,'01',1,1,1,219.25901620633647,0.0,0.0,0.0,0.0,0.0,1,1,0,0.0,0.0,0,''
66,'01',1,1,1,4.299139506968661,0.0,0.0,0.0,0.0,0.0,1,1,0,0.0,0.0,0,''
67,'01',1,1,1,660.049848420603,0.0,0.0,0.0,0.0,0.0,1,1,0,0.0,0.0,0,''
69,'01',1,1,1,83.15061330944057,0.0,0.0,0.0,0.0,0.0,1,1,0,0.0,0.0,0,''
71,'01',1,1,1,76.61037332401766,0.0,0.0,0.0,0.0,0.0,1,1,0,0.0,0.0,0,''
75,'01',1,1,1,151.73654725101127,0.0,0.0,0.0,0.0,0.0,1,1,0,0.0,0.0,0,''
76,'01',1,1,1,75.54477114581911,0.0,0.0,0.0,0.0,0.0,1,1,0,0.0,0.0,0,''
77,'01',1,1,1,319.7744844058082,0.0,0.0,0.0,0.0,0.0,1,1,0,0.0,0.0,0,''
80,'01',1,1,1,1267.406197507603,0.0,0.0,0.0,0.0,0.0,1,1,0,0.0,0.0,0,''
82,'01',1,1,1,124.75028516219292,0.0,0.0,0.0,0.0,0.0,1,1,0,0.0,0.0,0,''
84,'01',1,1,1,244.4475588717411,0.0,0.0,0.0,0.0,0.0,1,1,0,0.0,0.0,0,''
85,'01',1,1,1,184.5215439295256,0.0,0.0,0.0,0.0,0.0,1,1,0,0.0,0.0,0,''
88,'01',1,1,1,162.90360898725004,0.0,0.0,0.0,0.0,0.0,1,1,0,0.0,0.0,0,''
89,'01',1,1,1,12.88410556634293,0.0,0.0,0.0,0.0,0.0,1,1,0,0.0,0.0,0,''
92,'01',1,1,1,119.43115775949214,0.0,0.0,0.0,0.0,0.0,1,1,0,0.0,0.0,0,''
93,'01',1,1,1,390.8242564712117,0.0,0.0,0.0,0.0,0.0,1,1,0,0.0,0.0,0,''
94,'01',1,1,1,11.841770277698295,0.0,0.0,0.0,0.0,0.0,1,1,0,0.0,0.0,0,''
95,'01',1,1,1,245.48670308091747,0.0,0.0,0.0,0.0,0.0,1,1,0,0.0,0.0,0,''
97,'01',1,1,1,177.89942210335843,0.0,0.0,0.0,0.0,0.0,1,1,0,0.0,0.0,0,''
98,'01',1,1,1,32.98588300450062,0.0,0.0,0.0,0.0,0.0,1,1,0,0.0,0.0,0,''
99,'01',1,1,1,30.442395808257235,0.0,0.0,0.0,0.0,0.0,1,1,0,0.0,0.0,0,''
106,'01',1,1,1,134.16249767972027,0.0,0.0,0.0,0.0,0.0,1,1,0,0.0,0.0,0,''
108,'01',1,1,1,57.39745360091968,0.0,0.0,0.0,0.0,0.0,1,1,0,0.0,0.0,0,''
110,'01',1,1,1,209.86593524347958,0.0,0.0,0.0,0.0,0.0,1,1,0,0.0,0.0,0,''
111,'01',1,1,1,57.15270340707121,0.0,0.0,0.0,0.0,0.0,1,1,0,0.0,0.0,0,''
112,'01',1,1,1,112.09528287274301,0.0,0.0,0.0,0.0,0.0,1,1,0,0.0,0.0,0,''
113,'01',1,1,1,94.63533005982204,0.0,0.0,0.0,0.0,0.0,1,1,0,0.0,0.0,0,''
114,'01',1,1,1,82.81501378075852,0.0,0.0,0.0,0.0,0.0,1,1,0,0.0,0.0,0,''
115,'01',1,1,1,160.2726974514743,0.0,0.0,0.0,0.0,0.0,1,1,0,0.0,0.0,0,''
117,'01',1,1,1,97.08641671785027,0.0,0.0,0.0,0.0,0.0,1,1,0,0.0,0.0,0,''
0 / END OF LOAD DATA, BEGIN FIXED SHUNT DATA
0 / END OF FIXED SHUNT DATA, BEGIN GENERATOR DATA
1,'01',62.664672174740886,0.0,40.69959287003197,-20.740489348686346,1.0,0,0,100.0,0.0,1.0,0.0,0.0,1.0,1,100.0,4999.0,-4999.0,0,1,1.0,0,1.0,0,1.0,0,1.0,0,1.0
4,'01',87.28523699000561,0.0,47.627106330260254,-7.5527221624772665,1.0,0,0,100.0,0.0,1.0,0.0,0.0,1.0,1,100.0,4999.0,-4999.0,0,1,1.0,0,1.0,0,1.0,0,1.0,0,1.0
7,'01',0.0,0.0,231.25302410878123,-3.5021099059599488,1.0,0,0,100.0,0.0,1.0,0.0,0.0,1.0,1,100.0,4999.0,-4999.0,0,1,1.0,0,1.0,0,1.0,0,1.0,0,1.0
9,'01',153.0435391357606,0.0,53.30586768658131,-23.604639005502534,1.0,0,0,100.0,0.0,1.0,0.0,0.0,1.0,1,100.0,4999.0,-4999.0,0,1,1.0,0,1.0,0,1.0,0,1.0,0,1.0
11,'01',18.432191261677122,0.0,12.258805323770236,-3.982656870255718,1.0,0,0,100.0,0.0,1.0,0.0,0.0,1.0,1,100.0,4999.0,-4999.0,0,1,1.0,0,1.0,0,1.0,0,1.0,0,1.0
12,'01',40.16601220720859,0.0,23.844221862879643,-9.740687373109004,1.0,0,0,100.0,0.0,1.0,0.0,0.0,1.0,1,100.0,4999.0,-4999.0,0,1,1.0,0,1.0,0,1.0,0,1.0,0,1.0
14,'01',121.62403493131669,0.0,102.52663149138,-36.72715532752673,1.0,0,0,100.0,0.0,1.0,0.0,0.0,1.0,1,100.0,4999.0,-4999.0,0,1,1.0,0,1.0,0,1.0,0,1.0,0,1.0
17,'01',145.2930494638106,0.0,124.49583156161614,-11.807461808095683,1.0,0,0,100.0,0.0,1.0,0.0,0.0,1.0,1,100.0,4999.0,-4999.0,0,1,1.0,0,1.0,0,1.0,0,1.0,0,1.0
18,'01',166.31917552804512,0.0,77.0530110308999,-42.00843481863132,1.0,0,0,100.0,0.0,1.0,0.0,0.0,1.0,1,100.0,4999.0,-4999.0,0,1,1.0,0,1.0,0,1.0,0,1.0,0,1.0
20,'01',141.59281307613622,0.0,55.49848258634526,-8.710575552572884,1.0,0,0,100.0,0.0,1.0,0.0,0.0,1.0,1,100.0,4999.0,-4999.0,0,1,1.0,0,1.0,0,1.0,0,1.0,0,1.0
21,'01',90.91532645756313,0.0,39.62187950343833,-16.449939084989783,1.0,0,0,100.0,0.0,1.0,0.0,0.0,1.0,1,100.0,4999.0,-4999.0,0,1,1.0,0,1.0,0,1.0,0,1.0,0,1.0
23,'01',5.607167877328828,0.0,3.5099228219385195,-1.3558909244593793,1.0,0,0,100.0,0.0,1.0,0.0,0.0,1.0,1,100.0,4999.0,-4999.0,0,1,1.0,0,1.0,0,1.0,0,1.0,0,1.0
24,'01',162.09622643680788,0.0,110.872756442276,-20.569091634545543,1.0,0,0,100.0,0.0,1.0,0.0,0.0,1.0,1,100.0,4999.0,-4999.0,0,1,1.0,0,1.0,0,1.0,0,1.0,0,1.0
25,'01',43.612534562024045,0.0,21.499057911913514,-7.576522633504784,1.0,0,0,100.0,0.0,1.0,0.0,0.0,1.0,1,100.0,4999.0,-4999.0,0,1,1.0,0,1.0,0,1.0,0,1.0,0,1.0
26,'01',57.41701955061102,0.0,22.389390505740796,-4.186814816241841,1.0,0,0,100.0,0.0,1.0,0.0,0.0,1.0,1,100.0,4999.0,-4999.0,0,1,1.0,0,1.0,0,1.0,0,1.0,0,1.0
27,'01',129.77469901406656,0.0,71.3170663920592,-0.19811100740992538,1.0,0,0,100.0,0.0,1.0,0.0,0.0,1.0,1,100.0,4999.0,-4999.0,0,1,1.0,0,1.0,0,1.0,0,1.0,0,1.0
28,'01',28.30929420447393,0.0,18.10980330259162,-7.259744182283818,1.0,0,0,100.0,0.0,1.0,0.0,0.0,1.0,1,100.0,4999.0,-4999.0,0,1,1.0,0,1.0,0,1.0,0,1.0,0,1.0
30,'01',21.465197264717474,0.0,11.99843443062226,-3.153776261671832,1.0,0,0,100.0,0.0,1.0,0.0,0.0,1.0,1,100.0,4999.0,-4999.0,0,1,1.0,0,1.0,0,1.0,0,1.0,0,1.0
32,'01',2.9015375217230748,0.0,1.019616453181515,-0.48300627582462186,1.0,0,0,100.0,0.0,1.0,0.0,0.0,1.0,1,100.0,4999.0,-4999.0,0,1,1.0,0,1.0,0,1.0,0,1.0,0,1.0
33,'01',91.49220772823871,0.0,67.91873021067879,-22.03232745362298,1.0,0,0,100.0,0.0,1.0,0.0,0.0,1.0,1,100.0,4999.0,-4999.0,0,1,1.0,0,1.0,0,1.0,0,1.0,0,1.0
35,'01',18.341184352698495,0.0,10.004004403894267,-2.1351267097528903,1.0,0,0,100.0,0.0,1.0,0.0,0.0,1.0,1,100.0,4999.0,-4999.0,0,1,1.0,0,1.0,0,1.0,0,1.0,0,1.0
36,'01',2.956857632367145,0.0,1.6094909162796625,-0.8159308024012075,1.0,0,0,100.0,0.0,1.0,0.0,0.0,1.0,1,100.0,4999.0,-4999.0,0,1,1.0,0,1.0,0,1.0,0,1.0,0,1.0
38,'01',0.0,0.0,127.20535600078196,-91.56521704609295,1.0,0,0,100.0,0.0,1.0,0.0,0.0,1.0,1,100.0,4999.0,-4999.0,0,1,1.0,0,1.0,0,1.0,0,1.0,0,1.0
39,'01',0.0,0.0,1.163014163934761,-0.38566551867401416,1.0,0,0,100.0,0.0,1.0,0.0,0.0,1.0,1,100.0,4999.0,-4999.0,0,1,1.0,0,1.0,0,1.0,0,1.0,0,1.0
42,'01',172.24618461746525,0.0,81.7188681079072,-48.629459275564955,1.0,0,0,100.0,0.0,1.0,0.0,0.0,1.0,1,100.0,4999.0,-4999.0,0,1,1.0,0,1.0,0,1.0,0,1.0,0,1.0
43,'01',62.227406611561634,0.0,25.968923567036036,-2.0098628655032904,1.0,0,0,100.0,0.0,1.0,0.0,0.0,1.0,1,100.0,4999.0,-4999.0,0,1,1.0,0,1.0,0,1.0,0,1.0,0,1.0
44,'01',9.91883508912235,0.0,5.602186303644255,-2.220806705098701,1.0,0,0,100.0,0.0,1.0,0.0,0.0,1.0,1,100.0,4999.0,-4999.0,0,1,1.0,0,1.0,0,1.0,0,1.0,0,1.0
46,'01',76.41488963276899,0.0,29.082717900334295,-27.996373364766992,1.0,0,0,100.0,0.0,1.0,0.0,0.0,1.0,1,100.0,4999.0,-4999.0,0,1,1.0,0,1.0,0,1.0,0,1.0,0,1.0
48,'01',47.99774851825246,0.0,23.072729071655708,-13.15896756777187,1.0,0,0,100.0,0.0,1.0,0.0,0.0,1.0,1,100.0,4999.0,-4999.0,0,1,1.0,0,1.0,0,1.0,0,1.0,0,1.0
49,'01',51.84247812181327,0.0,20.221534038178483,-5.354733832240549,1.0,0,0,100.0,0.0,1.0,0.0,0.0,1.0,1,100.0,4999.0,-4999.0,0,1,1.0,0,1.0,0,1.0,0,1.0,0,1.0
50,'01',86.50663514183587,0.0,55.03552147525032,-18.37408633809738,1.0,0,0,100.0,0.0,1.0,0.0,0.0,1.0,1,100.0,4999.0,-4999.0,0,1,1.0,0,1.0,0,1.0,0,1.0,0,1.0
51,'01',54.95353729002386,0.0,32.86857621784964,-10.45040215695889,1.0,0,0,100.0,0.0,1.0,0.0,0.0,1.0,1,100.0,4999.0,-4999.0,0,1,1.0,0,1.0,0,1.0,0,1.0,0,1.0
53,'01',240.78637033554455,0.0,207.01931006359044,-23.119717461115417,1.0,0,0,100.0,0.0,1.0,0.0,0.0,1.0,1,100.0,4999.0,-4999.0,0,1,1.0,0,1.0,0,1.0,0,1.0,0,1.0
54,'01',88.85116935621,0.0,29.789424361750378,-22.252695657372247,1.0,0,0,100.0,0.0,1.0,0.0,0.0,1.0,1,100.0,4999.0,-4999.0,0,1,1.0,0,1.0,0,1.0,0,1.0,0,1.0
55,'01',12.532749542476024,0.0,4.19002535338818,-2.633898770173823,1.0,0,0,100.0,0.0,1.0,0.0,0.0,1.0,1,100.0,4999.0,-4999.0,0,1,1.0,0,1.0,0,1.0,0,1.0,0,1.0
56,'01',38.16115211625245,0.0,19.65646089050107,-8.450826313983022,1.0,0,0,100.0,0.0,1.0,0.0,0.0,1.0,1,100.0,4999.0,-4999.0,0,1,1.0,0,1.0,0,1.0,0,1.0,0,1.0
57,'01',125.00744547092108,0.0,61.58943786462372,-13.88681927024805,1.0,0,0,100.0,0.0,1.0,0.0,0.0,1.0,1,100.0,4999.0,-4999.0,0,1,1.0,0,1.0,0,1.0,0,1.0,0,1.0
58,'01',1181.9613943501172,0.0,641.5353095623383,-194.61133035212782,1.0,0,0,100.0,0.0,1.0,0.0,0.0,1.0,1,100.0,4999.0,-4999.0,0,1,1.0,0,1.0,0,1.0,0,1.0,0,1.0
60,'01',20.284994961452213,0.0,10.665584787649022,-2.807951018252724,1.0,0,0,100.0,0.0,1.0,0.0,0.0,1.0,1,100.0,4999.0,-4999.0,0,1,1.0,0,1.0,0,1.0,0,1.0,0,1.0
61,'01',203.83005899692748,0.0,85.71617826892506,-13.074669236479583,1.0,0,0,100.0,0.0,1.0,0.0,0.0,1.0,1,100.0,4999.0,-4999.0,0,1,1.0,0,1.0,0,1.0,0,1.0,0,1.0
62,'01',19.83884252631458,0.0,10.523461296232501,-0.5384986741658344,1.0,0,0,100.0,0.0,1.0,0.0,0.0,1.0,1,100.0,4999.0,-4999.0,0,1,1.0,0,1.0,0,1.0,0,1.0,0,1.0
64,'01',237.88542515890973,0.0,129.33782567147477,-40.7622349470869,1.0,0,0,100.0,0.0,1.0,0.0,0.0,1.0,1,100.0,4999.0,-4999.0,0,1,1.0,0,1.0,0,1.0,0,1.0,0,1.0
68,'01',96.35464866219093,0.0,60.608205322224705,-15.940331822284938,1.0,0,0,100.0,0.0,1.0,0.0,0.0,1.0,1,100.0,4999.0,-4999.0,0,1,1.0,0,1.0,0,1.0,0,1.0,0,1.0
70,'01',0.0,0.0,167.06856233088874,-24.75711200972188,1.0,0,0,100.0,0.0,1.0,0.0,0.0,1.0,1,100.0,4999.0,-4999.0,0,1,1.0,0,1.0,0,1.0,0,1.0,0,1.0
72,'01',1.0E-4,0.0,1447.119158952802,-46.608716102386516,1.0,0,0,100.0,0.0,1.0,0.0,0.0,1.0,1,100.0,4999.0,-4999.0,0,1,1.0,0,1.0,0,1.0,0,1.0,0,1.0
73,'01',17.79470592749789,0.0,7.169877235867356,-4.054550291185664,1.0,0,0,100.0,0.0,1.0,0.0,0.0,1.0,1,100.0,4999.0,-4999.0,0,1,1.0,0,1.0,0,1.0,0,1.0,0,1.0
74,'01',123.38488790300725,0.0,63.16546696052676,-30.12417003553948,1.0,0,0,100.0,0.0,1.0,0.0,0.0,1.0,1,100.0,4999.0,-4999.0,0,1,1.0,0,1.0,0,1.0,0,1.0,0,1.0
78,'01',84.98077914486956,0.0,36.684735764470176,-27.76334410994846,1.0,0,0,100.0,0.0,1.0,0.0,0.0,1.0,1,100.0,4999.0,-4999.0,0,1,1.0,0,1.0,0,1.0,0,1.0,0,1.0
79,'01',106.45206616364577,0.0,72.5251130658151,-14.073014549382053,1.0,0,0,100.0,0.0,1.0,0.0,0.0,1.0,1,100.0,4999.0,-4999.0,0,1,1.0,0,1.0,0,1.0,0,1.0,0,1.0
81,'01',34.8438305494346,0.0,13.463727357823354,-2.6257615070084737,1.0,0,0,100.0,0.0,1.0,0.0,0.0,1.0,1,100.0,4999.0,-4999.0,0,1,1.0,0,1.0,0,1.0,0,1.0,0,1.0
83,'01',6.270790020941709,0.0,3.5640247765513706,-0.3459245557673509,1.0,0,0,100.0,0.0,1.0,0.0,0.0,1.0,1,100.0,4999.0,-4999.0,0,1,1.0,0,1.0,0,1.0,0,1.0,0,1.0
86,'01',75.08161436150333,0.0,46.097372125113615,-6.152416248545657,1.0,0,0,100.0,0.0,1.0,0.0,0.0,1.0,1,100.0,4999.0,-4999.0,0,1,1.0,0,1.0,0,1.0,0,1.0,0,1.0
87,'01',11.245586898647016,0.0,5.208926598862813,-2.707962771254479,1.0,0,0,100.0,0.0,1.0,0.0,0.0,1.0,1,100.0,4999.0,-4999.0,0,1,1.0,0,1.0,0,1.0,0,1.0,0,1.0
90,'01',31.454363620684685,0.0,16.712617391128052,-6.386905945993989,1.0,0,0,100.0,0.0,1.0,0.0,0.0,1.0,1,100.0,4999.0,-4999.0,0,1,1.0,0,1.0,0,1.0,0,1.0,0,1.0
91,'01',38.567463109248095,0.0,27.196239437810814,-3.2112331423666696,1.0,0,0,100.0,0.0,1.0,0.0,0.0,1.0,1,100.0,4999.0,-4999.0,0,1,1.0,0,1.0,0,1.0,0,1.0,0,1.0
96,'01',221.39175041355213,0.0,137.71462158186554,-63.59783811474478,1.0,0,0,100.0,0.0,1.0,0.0,0.0,1.0,1,100.0,4999.0,-4999.0,0,1,1.0,0,1.0,0,1.0,0,1.0,0,1.0
100,'01',155.1746111070078,0.0,124.528600131713,-18.481252875256448,1.0,0,0,100.0,0.0,1.0,0.0,0.0,1.0,1,100.0,4999.0,-4999.0,0,1,1.0,0,1.0,0,1.0,0,1.0,0,1.0
101,'01',202.41853520642044,0.0,109.74654559336534,-17.54037986287677,1.0,0,0,100.0,0.0,1.0,0.0,0.0,1.0,1,100.0,4999.0,-4999.0,0,1,1.0,0,1.0,0,1.0,0,1.0,0,1.0
102,'01',129.80096101456076,0.0,62.77991234067705,-0.6527596139430466,1.0,0,0,100.0,0.0,1.0,0.0,0.0,1.0,1,100.0,4999.0,-4999.0,0,1,1.0,0,1.0,0,1.0,0,1.0,0,1.0
103,'01',50.607676462166154,0.0,33.910694422712524,-8.622552097009885,1.0,0,0,100.0,0.0,1.0,0.0,0.0,1.0,1,100.0,4999.0,-4999.0,0,1,1.0,0,1.0,0,1.0,0,1.0,0,1.0
104,'01',0.0,0.0,54.358017911488886,-24.869808517757935,1.0,0,0,100.0,0.0,1.0,0.0,0.0,1.0,1,100.0,4999.0,-4999.0,0,1,1.0,0,1.0,0,1.0,0,1.0,0,1.0
105,'01',86.47212898312792,0.0,49.856983088291614,-30.161218872843655,1.0,0,0,100.0,0.0,1.0,0.0,0.0,1.0,1,100.0,4999.0,-4999.0,0,1,1.0,0,1.0,0,1.0,0,1.0,0,1.0
107,'01',19.714409052279777,0.0,12.029187315836333,-5.135511925780879,1.0,0,0,100.0,0.0,1.0,0.0,0.0,1.0,1,100.0,4999.0,-4999.0,0,1,1.0,0,1.0,0,1.0,0,1.0,0,1.0
109,'01',19.657050296095665,0.0,15.98397090149126,-1.6801983007264862,1.0,0,0,100.0,0.0,1.0,0.0,0.0,1.0,1,100.0,4999.0,-4999.0,0,1,1.0,0,1.0,0,1.0,0,1.0,0,1.0
116,'01',0.0,0.0,200.19457001042755,-58.92322328349807,1.0,0,0,100.0,0.0,1.0,0.0,0.0,1.0,1,100.0,4999.0,-4999.0,0,1,1.0,0,1.0,0,1.0,0,1.0,0,1.0
118,'01',242.1334692960958,0.0,187.59416407808982,-60.44590352833276,1.0,0,0,100.0,0.0,1.0,0.0,0.0,1.0,1,100.0,4999.0,-4999.0,0,1,1.0,0,1.0,0,1.0,0,1.0,0,1.0
0 / END OF GENERATOR DATA, BEGIN BRANCH DATA
1,2,'01',0.21510592830769082,0.4513639768600132,0.0,'Line_0_1',827.1627209619329,0.0,0.0,0.0,0.0,0.0,0.0,0.0,0.0,0.0,0.0,0.0,0.0,0.0,0.0,0.0,1,1,0.0,1,1.0,0,1.0,0,1.0,0,1.0
1,11,'01',8.382493801080952E-4,0.05115944418332643,0.0,'Line_0_10',1925.260372688082,0.0,0.0,0.0,0.0,0.0,0.0,0.0,0.0,0.0,0.0,0.0,0.0,0.0,0.0,0.0,1,1,0.0,1,1.0,0,1.0,0,1.0,0,1.0
2,14,'01',0.007791012103477847,0.08842788447795223,0.0,'Line_1_13',378.12864085391226,0.0,0.0,0.0,0.0,0.0,0.0,0.0,0.0,0.0,0.0,0.0,0.0,0.0,0.0,0.0,1,1,0.0,1,1.0,0,1.0,0,1.0,0,1.0
3,5,'01',5.592496875714663E-5,0.09443595674968638,0.0,'Line_2_4',2546.4659042143103,0.0,0.0,0.0,0.0,0.0,0.0,0.0,0.0,0.0,0.0,0.0,0.0,0.0,0.0,0.0,1,1,0.0,1,1.0,0,1.0,0,1.0,0,1.0
3,12,'01',4.4577940030780897E-4,0.042128706320033536,0.0,'Line_2_11',1993.6357936596696,0.0,0.0,0.0,0.0,0.0,0.0,0.0,0.0,0.0,0.0,0.0,0.0,0.0,0.0,0.0,1,1,0.0,1,1.0,0,1.0,0,1.0,0,1.0
4,9,'01',0.028801993961905144,0.49916975583845064,0.0,'Line_3_8',73.41890512122522,0.0,0.0,0.0,0.0,0.0,0.0,0.0,0.0,0.0,0.0,0.0,0.0,0.0,0.0,0.0,1,1,0.0,1,1.0,0,1.0,0,1.0,0,1.0
4,11,'01',0.0015192616332155846,0.012067791649310806,0.0,'Line_3_10',1021.5787339644069,0.0,0.0,0.0,0.0,0.0,0.0,0.0,0.0,0.0,0.0,0.0,0.0,0.0,0.0,0.0,1,1,0.0,1,1.0,0,1.0,0,1.0,0,1.0
9,12,'01',0.0051305997990531175,0.03944994068908594,0.0,'Line_8_11',372.2610558021083,0.0,0.0,0.0,0.0,0.0,0.0,0.0,0.0,0.0,0.0,0.0,0.0,0.0,0.0,0.0,1,1,0.0,1,1.0,0,1.0,0,1.0,0,1.0
9,13,'01',0.013466722447714572,0.4998186144858115,0.0,'Line_8_12',150.48691306762674,0.0,0.0,0.0,0.0,0.0,0.0,0.0,0.0,0.0,0.0,0.0,0.0,0.0,0.0,0.0,1,1,0.0,1,1.0,0,1.0,0,1.0,0,1.0
18,59,'01',1.1974986714103596E-5,0.061829362936593496,0.0,'Line_17_58',3430.239108734943,0.0,0.0,0.0,0.0,0.0,0.0,0.0,0.0,0.0,0.0,0.0,0.0,0.0,0.0,0.0,1,1,0.0,1,1.0,0,1.0,0,1.0,0,1.0
20,60,'01',0.0013052748655958922,0.025210274980049095,0.0,'Line_19_59',3312.154264390678,0.0,0.0,0.0,0.0,0.0,0.0,0.0,0.0,0.0,0.0,0.0,0.0,0.0,0.0,0.0,1,1,0.0,1,1.0,0,1.0,0,1.0,0,1.0
20,65,'01',9.325361980191037E-4,0.0064728510189494826,0.0,'Line_19_64',4635.34763289324,0.0,0.0,0.0,0.0,0.0,0.0,0.0,0.0,0.0,0.0,0.0,0.0,0.0,0.0,0.0,1,1,0.0,1,1.0,0,1.0,0,1.0,0,1.0
20,102,'01',0.0017407060630197928,0.05125553693133802,0.0,'Line_19_101',520.9200502926665,0.0,0.0,0.0,0.0,0.0,0.0,0.0,0.0,0.0,0.0,0.0,0.0,0.0,0.0,0.0,1,1,0.0,1,1.0,0,1.0,0,1.0,0,1.0
22,29,'01',0.02494035906756765,0.3549457771873018,0.0,'Line_21_28',164.38094198968733,0.0,0.0,0.0,0.0,0.0,0.0,0.0,0.0,0.0,0.0,0.0,0.0,0.0,0.0,0.0,1,1,0.0,1,1.0,0,1.0,0,1.0,0,1.0
22,113,'01',0.04824712499048484,0.4976667709724576,0.0,'Line_21_112',73.0738611678975,0.0,0.0,0.0,0.0,0.0,0.0,0.0,0.0,0.0,0.0,0.0,0.0,0.0,0.0,0.0,1,1,0.0,1,1.0,0,1.0,0,1.0,0,1.0
24,51,'01',6.025607435087845E-4,0.0066239123988906645,0.0,'Line_23_50',486.1698809419343,0.0,0.0,0.0,0.0,0.0,0.0,0.0,0.0,0.0,0.0,0.0,0.0,0.0,0.0,0.0,1,1,0.0,1,1.0,0,1.0,0,1.0,0,1.0
25,63,'01',7.894428423595214E-4,0.036757642645453815,0.0,'Line_24_62',124.64712228862525,0.0,0.0,0.0,0.0,0.0,0.0,0.0,0.0,0.0,0.0,0.0,0.0,0.0,0.0,0.0,1,1,0.0,1,1.0,0,1.0,0,1.0,0,1.0
27,21,'01',0.019480402132617723,0.20728646120714614,0.0,'Line_26_20',62.24047318712568,0.0,0.0,0.0,0.0,0.0,0.0,0.0,0.0,0.0,0.0,0.0,0.0,0.0,0.0,0.0,1,1,0.0,1,1.0,0,1.0,0,1.0,0,1.0
27,44,'01',0.002732754651290049,0.08507674252599155,0.0,'Line_26_43',478.1163098245364,0.0,0.0,0.0,0.0,0.0,0.0,0.0,0.0,0.0,0.0,0.0,0.0,0.0,0.0,0.0,1,1,0.0,1,1.0,0,1.0,0,1.0,0,1.0
27,105,'01',0.0049648460023623995,0.02048353808473647,0.0,'Line_26_104',527.9939057785588,0.0,0.0,0.0,0.0,0.0,0.0,0.0,0.0,0.0,0.0,0.0,0.0,0.0,0.0,0.0,1,1,0.0,1,1.0,0,1.0,0,1.0,0,1.0
28,34,'01',0.005082042363334662,0.03760348840615203,0.0,'Line_27_33',537.5133564542476,0.0,0.0,0.0,0.0,0.0,0.0,0.0,0.0,0.0,0.0,0.0,0.0,0.0,0.0,0.0,1,1,0.0,1,1.0,0,1.0,0,1.0,0,1.0
28,101,'01',0.004987959139928396,0.08819615144073722,0.0,'Line_27_100',2564.6391113719997,0.0,0.0,0.0,0.0,0.0,0.0,0.0,0.0,0.0,0.0,0.0,0.0,0.0,0.0,0.0,1,1,0.0,1,1.0,0,1.0,0,1.0,0,1.0
29,30,'01',0.029450364481829916,0.4991319224732951,0.0,'Line_28_29',173.63066487400232,0.0,0.0,0.0,0.0,0.0,0.0,0.0,0.0,0.0,0.0,0.0,0.0,0.0,0.0,0.0,1,1,0.0,1,1.0,0,1.0,0,1.0,0,1.0
29,38,'01',0.010333691561358228,0.12823757233576766,0.0,'Line_28_37',387.5103518017019,0.0,0.0,0.0,0.0,0.0,0.0,0.0,0.0,0.0,0.0,0.0,0.0,0.0,0.0,0.0,1,1,0.0,1,1.0,0,1.0,0,1.0,0,1.0
29,70,'01',1.3825981135099405E-4,0.0015870544780684339,0.0,'Line_28_69',2744.662442987887,0.0,0.0,0.0,0.0,0.0,0.0,0.0,0.0,0.0,0.0,0.0,0.0,0.0,0.0,0.0,1,1,0.0,1,1.0,0,1.0,0,1.0,0,1.0
29,75,'01',9.309301215251115E-4,0.07250213453954171,0.0,'Line_28_74',3068.072647704865,0.0,0.0,0.0,0.0,0.0,0.0,0.0,0.0,0.0,0.0,0.0,0.0,0.0,0.0,0.0,1,1,0.0,1,1.0,0,1.0,0,1.0,0,1.0
32,107,'01',0.029345425123346005,0.49913810315816415,0.0,'Line_31_106',189.1139325528246,0.0,0.0,0.0,0.0,0.0,0.0,0.0,0.0,0.0,0.0,0.0,0.0,0.0,0.0,0.0,1,1,0.0,1,1.0,0,1.0,0,1.0,0,1.0
32,116,'01',0.028722089246239722,0.28952282291276427,0.0,'Line_31_115',768.1087437273626,0.0,0.0,0.0,0.0,0.0,0.0,0.0,0.0,0.0,0.0,0.0,0.0,0.0,0.0,0.0,1,1,0.0,1,1.0,0,1.0,0,1.0,0,1.0
33,47,'01',0.04096765471318536,0.3148600505998598,0.0,'Line_32_46',1027.0316219606839,0.0,0.0,0.0,0.0,0.0,0.0,0.0,0.0,0.0,0.0,0.0,0.0,0.0,0.0,0.0,1,1,0.0,1,1.0,0,1.0,0,1.0,0,1.0
33,64,'01',0.007127359510852334,0.38022005467857917,0.0,'Line_32_63',426.20416878228264,0.0,0.0,0.0,0.0,0.0,0.0,0.0,0.0,0.0,0.0,0.0,0.0,0.0,0.0,0.0,1,1,0.0,1,1.0,0,1.0,0,1.0,0,1.0
33,65,'01',0.0014066919355839984,0.49999802121388276,0.0,'Line_32_64',24.352169320537836,0.0,0.0,0.0,0.0,0.0,0.0,0.0,0.0,0.0,0.0,0.0,0.0,0.0,0.0,0.0,1,1,0.0,1,1.0,0,1.0,0,1.0,0,1.0
34,38,'01',0.012996554150499374,0.21808475283145148,0.0,'Line_33_37',365.08501773137294,0.0,0.0,0.0,0.0,0.0,0.0,0.0,0.0,0.0,0.0,0.0,0.0,0.0,0.0,0.0,1,1,0.0,1,1.0,0,1.0,0,1.0,0,1.0
34,115,'01',0.12754442700609986,0.4834588081105625,0.0,'Line_33_114',316.5579966174755,0.0,0.0,0.0,0.0,0.0,0.0,0.0,0.0,0.0,0.0,0.0,0.0,0.0,0.0,0.0,1,1,0.0,1,1.0,0,1.0,0,1.0,0,1.0
35,27,'01',0.00451399486266461,0.07681370350332105,0.0,'Line_34_26',1616.6151711859047,0.0,0.0,0.0,0.0,0.0,0.0,0.0,0.0,0.0,0.0,0.0,0.0,0.0,0.0,0.0,1,1,0.0,1,1.0,0,1.0,0,1.0,0,1.0
35,55,'01',0.03501750708897775,0.08300788104069079,0.0,'Line_34_54',191.25821583739878,0.0,0.0,0.0,0.0,0.0,0.0,0.0,0.0,0.0,0.0,0.0,0.0,0.0,0.0,0.0,1,1,0.0,1,1.0,0,1.0,0,1.0,0,1.0
38,31,'01',0.012411838756079981,0.21161700890965798,0.0,'Line_37_30',361.8411078871591,0.0,0.0,0.0,0.0,0.0,0.0,0.0,0.0,0.0,0.0,0.0,0.0,0.0,0.0,0.0,1,1,0.0,1,1.0,0,1.0,0,1.0,0,1.0
39,69,'01',0.01775115638447059,0.49968479709414226,0.0,'Line_38_68',30.55342708950211,0.0,0.0,0.0,0.0,0.0,0.0,0.0,0.0,0.0,0.0,0.0,0.0,0.0,0.0,0.0,1,1,0.0,1,1.0,0,1.0,0,1.0,0,1.0
41,36,'01',0.006439882360088236,0.07451153749827934,0.0,'Line_40_35',201.30462751481346,0.0,0.0,0.0,0.0,0.0,0.0,0.0,0.0,0.0,0.0,0.0,0.0,0.0,0.0,0.0,1,1,0.0,1,1.0,0,1.0,0,1.0,0,1.0
42,72,'01',1.6316158171198744E-4,0.004954395069765248,0.0,'Line_41_71',1837.5523031887699,0.0,0.0,0.0,0.0,0.0,0.0,0.0,0.0,0.0,0.0,0.0,0.0,0.0,0.0,0.0,1,1,0.0,1,1.0,0,1.0,0,1.0,0,1.0
42,86,'01',0.019970173378141935,0.49960103300058034,0.0,'Line_41_85',1223.7194618531937,0.0,0.0,0.0,0.0,0.0,0.0,0.0,0.0,0.0,0.0,0.0,0.0,0.0,0.0,0.0,1,1,0.0,1,1.0,0,1.0,0,1.0,0,1.0
44,41,'01',0.002079712258087244,0.006037505566126528,0.0,'Line_43_40',1935.7914946875444,0.0,0.0,0.0,0.0,0.0,0.0,0.0,0.0,0.0,0.0,0.0,0.0,0.0,0.0,0.0,1,1,0.0,1,1.0,0,1.0,0,1.0,0,1.0
44,42,'01',9.999999999999999E-6,0.0011613799438056124,0.0,'Line_43_41',7331.496056922559,0.0,0.0,0.0,0.0,0.0,0.0,0.0,0.0,0.0,0.0,0.0,0.0,0.0,0.0,0.0,1,1,0.0,1,1.0,0,1.0,0,1.0,0,1.0
44,50,'01',2.5974294120415505E-5,0.014086176267034015,0.0,'Line_43_49',568.876259080408,0.0,0.0,0.0,0.0,0.0,0.0,0.0,0.0,0.0,0.0,0.0,0.0,0.0,0.0,0.0,1,1,0.0,1,1.0,0,1.0,0,1.0,0,1.0
46,66,'01',0.0010942266968031,0.03150003777159535,0.0,'Line_45_65',595.0666252248417,0.0,0.0,0.0,0.0,0.0,0.0,0.0,0.0,0.0,0.0,0.0,0.0,0.0,0.0,0.0,1,1,0.0,1,1.0,0,1.0,0,1.0,0,1.0
46,117,'01',0.0022699984146107837,0.05893773225941582,0.0,'Line_45_116',9262.163964328909,0.0,0.0,0.0,0.0,0.0,0.0,0.0,0.0,0.0,0.0,0.0,0.0,0.0,0.0,0.0,1,1,0.0,1,1.0,0,1.0,0,1.0,0,1.0
47,23,'01',0.007183044613722569,0.08879953969158078,0.0,'Line_46_22',466.5281628031294,0.0,0.0,0.0,0.0,0.0,0.0,0.0,0.0,0.0,0.0,0.0,0.0,0.0,0.0,0.0,1,1,0.0,1,1.0,0,1.0,0,1.0,0,1.0
47,60,'01',0.001032518072760528,0.02164128720137269,0.0,'Line_46_59',716.4418439407378,0.0,0.0,0.0,0.0,0.0,0.0,0.0,0.0,0.0,0.0,0.0,0.0,0.0,0.0,0.0,1,1,0.0,1,1.0,0,1.0,0,1.0,0,1.0
47,64,'01',0.061522278089614905,0.45059063685849,0.0,'Line_46_63',144.09654719618075,0.0,0.0,0.0,0.0,0.0,0.0,0.0,0.0,0.0,0.0,0.0,0.0,0.0,0.0,0.0,1,1,0.0,1,1.0,0,1.0,0,1.0,0,1.0
47,80,'01',0.014922708758736017,0.11678510393243115,0.0,'Line_46_79',4299.561592825594,0.0,0.0,0.0,0.0,0.0,0.0,0.0,0.0,0.0,0.0,0.0,0.0,0.0,0.0,0.0,1,1,0.0,1,1.0,0,1.0,0,1.0,0,1.0
47,88,'01',0.0037553978839897895,0.040944195127632074,0.0,'Line_46_87',280.06452912197756,0.0,0.0,0.0,0.0,0.0,0.0,0.0,0.0,0.0,0.0,0.0,0.0,0.0,0.0,0.0,1,1,0.0,1,1.0,0,1.0,0,1.0,0,1.0
48,92,'01',0.0384950147640815,0.4985159313786402,0.0,'Line_47_91',3768.209753446314,0.0,0.0,0.0,0.0,0.0,0.0,0.0,0.0,0.0,0.0,0.0,0.0,0.0,0.0,0.0,1,1,0.0,1,1.0,0,1.0,0,1.0,0,1.0
49,68,'01',9.607506532761435E-5,0.0031460431529203147,0.0,'Line_48_67',1969.7790963368923,0.0,0.0,0.0,0.0,0.0,0.0,0.0,0.0,0.0,0.0,0.0,0.0,0.0,0.0,0.0,1,1,0.0,1,1.0,0,1.0,0,1.0,0,1.0
49,95,'01',1.3942543435632815E-4,0.003303227517536497,0.0,'Line_48_94',637.1792161917003,0.0,0.0,0.0,0.0,0.0,0.0,0.0,0.0,0.0,0.0,0.0,0.0,0.0,0.0,0.0,1,1,0.0,1,1.0,0,1.0,0,1.0,0,1.0
54,78,'01',0.0019048706400381925,0.07909495530301693,0.0,'Line_53_77',1077.943034288354,0.0,0.0,0.0,0.0,0.0,0.0,0.0,0.0,0.0,0.0,0.0,0.0,0.0,0.0,0.0,1,1,0.0,1,1.0,0,1.0,0,1.0,0,1.0
55,79,'01',0.014154826826319288,0.10343084261888286,0.0,'Line_54_78',421.2605942849185,0.0,0.0,0.0,0.0,0.0,0.0,0.0,0.0,0.0,0.0,0.0,0.0,0.0,0.0,0.0,1,1,0.0,1,1.0,0,1.0,0,1.0,0,1.0
56,41,'01',5.035092279621947E-4,0.008351347471920269,0.0,'Line_55_40',2357.034524304013,0.0,0.0,0.0,0.0,0.0,0.0,0.0,0.0,0.0,0.0,0.0,0.0,0.0,0.0,0.0,1,1,0.0,1,1.0,0,1.0,0,1.0,0,1.0
57,58,'01',0.005772330221979451,0.49996667909352566,0.0,'Line_56_57',107.54865251383224,0.0,0.0,0.0,0.0,0.0,0.0,0.0,0.0,0.0,0.0,0.0,0.0,0.0,0.0,0.0,1,1,0.0,1,1.0,0,1.0,0,1.0,0,1.0
57,114,'01',0.005173277859069193,0.07707076548188017,0.0,'Line_56_113',422.8914136431935,0.0,0.0,0.0,0.0,0.0,0.0,0.0,0.0,0.0,0.0,0.0,0.0,0.0,0.0,0.0,1,1,0.0,1,1.0,0,1.0,0,1.0,0,1.0
58,72,'01',1.1675916698698572E-4,0.021881480504264084,0.0,'Line_57_71',3190.336180334686,0.0,0.0,0.0,0.0,0.0,0.0,0.0,0.0,0.0,0.0,0.0,0.0,0.0,0.0,0.0,1,1,0.0,1,1.0,0,1.0,0,1.0,0,1.0
58,83,'01',2.3697967286046167E-4,0.011740100930580963,0.0,'Line_57_82',964.3675211712914,0.0,0.0,0.0,0.0,0.0,0.0,0.0,0.0,0.0,0.0,0.0,0.0,0.0,0.0,0.0,1,1,0.0,1,1.0,0,1.0,0,1.0,0,1.0
58,87,'01',0.0030879172988600313,0.49999046467583297,0.0,'Line_57_86',300.87207733804115,0.0,0.0,0.0,0.0,0.0,0.0,0.0,0.0,0.0,0.0,0.0,0.0,0.0,0.0,0.0,1,1,0.0,1,1.0,0,1.0,0,1.0,0,1.0
58,100,'01',0.0018757917104550276,0.046926092224025044,0.0,'Line_57_99',2167.050318456752,0.0,0.0,0.0,0.0,0.0,0.0,0.0,0.0,0.0,0.0,0.0,0.0,0.0,0.0,0.0,1,1,0.0,1,1.0,0,1.0,0,1.0,0,1.0
58,114,'01',0.0025909258476462184,0.048737309669979585,0.0,'Line_57_113',1079.312780098314,0.0,0.0,0.0,0.0,0.0,0.0,0.0,0.0,0.0,0.0,0.0,0.0,0.0,0.0,0.0,1,1,0.0,1,1.0,0,1.0,0,1.0,0,1.0
59,19,'01',0.00933372474684991,0.16345553999363285,0.0,'Line_58_18',707.4800820752514,0.0,0.0,0.0,0.0,0.0,0.0,0.0,0.0,0.0,0.0,0.0,0.0,0.0,0.0,0.0,1,1,0.0,1,1.0,0,1.0,0,1.0,0,1.0
59,110,'01',0.0015557885299090717,0.27014413565126716,0.0,'Line_58_109',102.5632282581309,0.0,0.0,0.0,0.0,0.0,0.0,0.0,0.0,0.0,0.0,0.0,0.0,0.0,0.0,0.0,1,1,0.0,1,1.0,0,1.0,0,1.0,0,1.0
61,17,'01',4.979230438162904E-4,0.06218816460311457,0.0,'Line_60_16',721.6438280190592,0.0,0.0,0.0,0.0,0.0,0.0,0.0,0.0,0.0,0.0,0.0,0.0,0.0,0.0,0.0,1,1,0.0,1,1.0,0,1.0,0,1.0,0,1.0
61,38,'01',0.0024115860474525947,0.12548612653373678,0.0,'Line_60_37',3432.130550892268,0.0,0.0,0.0,0.0,0.0,0.0,0.0,0.0,0.0,0.0,0.0,0.0,0.0,0.0,0.0,1,1,0.0,1,1.0,0,1.0,0,1.0,0,1.0
61,62,'01',0.00469414696070153,0.0034558590701777516,0.0,'Line_60_61',1477.990297011574,0.0,0.0,0.0,0.0,0.0,0.0,0.0,0.0,0.0,0.0,0.0,0.0,0.0,0.0,0.0,1,1,0.0,1,1.0,0,1.0,0,1.0,0,1.0
61,98,'01',0.012321098415499339,0.13397378030422755,0.0,'Line_60_97',2606.6594548299627,0.0,0.0,0.0,0.0,0.0,0.0,0.0,0.0,0.0,0.0,0.0,0.0,0.0,0.0,0.0,1,1,0.0,1,1.0,0,1.0,0,1.0,0,1.0
61,112,'01',5.973636909963749E-4,0.028585500793812505,0.0,'Line_60_111',361.8195465753305,0.0,0.0,0.0,0.0,0.0,0.0,0.0,0.0,0.0,0.0,0.0,0.0,0.0,0.0,0.0,1,1,0.0,1,1.0,0,1.0,0,1.0,0,1.0
62,45,'01',0.0033508186059596056,0.12144624569536833,0.0,'Line_61_44',200.80383225146068,0.0,0.0,0.0,0.0,0.0,0.0,0.0,0.0,0.0,0.0,0.0,0.0,0.0,0.0,0.0,1,1,0.0,1,1.0,0,1.0,0,1.0,0,1.0
62,71,'01',0.03541340245946533,0.1669177000898728,0.0,'Line_61_70',169.88246732818408,0.0,0.0,0.0,0.0,0.0,0.0,0.0,0.0,0.0,0.0,0.0,0.0,0.0,0.0,0.0,1,1,0.0,1,1.0,0,1.0,0,1.0,0,1.0
62,80,'01',0.0026051234666275296,0.0038336406119282595,0.0,'Line_61_79',2799.7603086057616,0.0,0.0,0.0,0.0,0.0,0.0,0.0,0.0,0.0,0.0,0.0,0.0,0.0,0.0,0.0,1,1,0.0,1,1.0,0,1.0,0,1.0,0,1.0
63,42,'01',4.7094065387979224E-5,0.02304360886330373,0.0,'Line_62_41',175.74588734695615,0.0,0.0,0.0,0.0,0.0,0.0,0.0,0.0,0.0,0.0,0.0,0.0,0.0,0.0,0.0,1,1,0.0,1,1.0,0,1.0,0,1.0,0,1.0
63,90,'01',7.87012860888515E-4,0.4999993806103731,0.0,'Line_62_89',785.7457993807012,0.0,0.0,0.0,0.0,0.0,0.0,0.0,0.0,0.0,0.0,0.0,0.0,0.0,0.0,0.0,1,1,0.0,1,1.0,0,1.0,0,1.0,0,1.0
64,80,'01',5.426650819155226E-4,0.025245003239347207,0.0,'Line_63_79',360.5039227902259,0.0,0.0,0.0,0.0,0.0,0.0,0.0,0.0,0.0,0.0,0.0,0.0,0.0,0.0,0.0,1,1,0.0,1,1.0,0,1.0,0,1.0,0,1.0
65,47,'01',8.389501022843585E-4,0.008202983605094015,0.0,'Line_64_46',3202.2819406269437,0.0,0.0,0.0,0.0,0.0,0.0,0.0,0.0,0.0,0.0,0.0,0.0,0.0,0.0,0.0,1,1,0.0,1,1.0,0,1.0,0,1.0,0,1.0
67,25,'01',0.008658051477852027,0.08678862371206979,0.0,'Line_66_24',867.4132838894479,0.0,0.0,0.0,0.0,0.0,0.0,0.0,0.0,0.0,0.0,0.0,0.0,0.0,0.0,0.0,1,1,0.0,1,1.0,0,1.0,0,1.0,0,1.0
67,84,'01',0.005428049465718606,0.23026142999760432,0.0,'Line_66_83',61.25441036568458,0.0,0.0,0.0,0.0,0.0,0.0,0.0,0.0,0.0,0.0,0.0,0.0,0.0,0.0,0.0,1,1,0.0,1,1.0,0,1.0,0,1.0,0,1.0
67,90,'01',0.011345047965581799,0.4520422381699491,0.0,'Line_66_89',484.6489088977826,0.0,0.0,0.0,0.0,0.0,0.0,0.0,0.0,0.0,0.0,0.0,0.0,0.0,0.0,0.0,1,1,0.0,1,1.0,0,1.0,0,1.0,0,1.0
68,51,'01',1.4505231989282193E-4,9.894239862130443E-4,0.0,'Line_67_50',3176.4306049444426,0.0,0.0,0.0,0.0,0.0,0.0,0.0,0.0,0.0,0.0,0.0,0.0,0.0,0.0,0.0,1,1,0.0,1,1.0,0,1.0,0,1.0,0,1.0
68,56,'01',0.0010806844965183435,0.008209930777124102,0.0,'Line_67_55',1080.4182887206587,0.0,0.0,0.0,0.0,0.0,0.0,0.0,0.0,0.0,0.0,0.0,0.0,0.0,0.0,0.0,1,1,0.0,1,1.0,0,1.0,0,1.0,0,1.0
68,95,'01',0.001503328792127297,0.1008725062119353,0.0,'Line_67_94',351.6715812509896,0.0,0.0,0.0,0.0,0.0,0.0,0.0,0.0,0.0,0.0,0.0,0.0,0.0,0.0,0.0,1,1,0.0,1,1.0,0,1.0,0,1.0,0,1.0
70,51,'01',9.825948301178225E-5,0.0010074918779391857,0.0,'Line_69_50',1848.1233327739972,0.0,0.0,0.0,0.0,0.0,0.0,0.0,0.0,0.0,0.0,0.0,0.0,0.0,0.0,0.0,1,1,0.0,1,1.0,0,1.0,0,1.0,0,1.0
72,37,'01',5.7365329520412845E-5,0.0035674983676257884,0.0,'Line_71_36',1820.3323854063522,0.0,0.0,0.0,0.0,0.0,0.0,0.0,0.0,0.0,0.0,0.0,0.0,0.0,0.0,0.0,1,1,0.0,1,1.0,0,1.0,0,1.0,0,1.0
72,78,'01',0.006173216146315523,0.0714950346831056,0.0,'Line_71_77',344.96253255058747,0.0,0.0,0.0,0.0,0.0,0.0,0.0,0.0,0.0,0.0,0.0,0.0,0.0,0.0,0.0,1,1,0.0,1,1.0,0,1.0,0,1.0,0,1.0
73,67,'01',4.01960205688692E-4,0.014137854204889794,0.0,'Line_72_66',1011.1870204417357,0.0,0.0,0.0,0.0,0.0,0.0,0.0,0.0,0.0,0.0,0.0,0.0,0.0,0.0,0.0,1,1,0.0,1,1.0,0,1.0,0,1.0,0,1.0
73,72,'01',0.006292179981578527,0.08452784320295821,0.0,'Line_72_71',165.40344523724207,0.0,0.0,0.0,0.0,0.0,0.0,0.0,0.0,0.0,0.0,0.0,0.0,0.0,0.0,0.0,1,1,0.0,1,1.0,0,1.0,0,1.0,0,1.0
73,100,'01',3.7114154443663983E-4,0.0039432759699579295,0.0,'Line_72_99',1074.7210871686693,0.0,0.0,0.0,0.0,0.0,0.0,0.0,0.0,0.0,0.0,0.0,0.0,0.0,0.0,0.0,1,1,0.0,1,1.0,0,1.0,0,1.0,0,1.0
73,109,'01',0.011756265082997513,0.027263793732123454,0.0,'Line_72_108',277.74571290833893,0.0,0.0,0.0,0.0,0.0,0.0,0.0,0.0,0.0,0.0,0.0,0.0,0.0,0.0,0.0,1,1,0.0,1,1.0,0,1.0,0,1.0,0,1.0
74,89,'01',0.002950580725606031,0.04062701184855953,0.0,'Line_73_88',350.8587333178484,0.0,0.0,0.0,0.0,0.0,0.0,0.0,0.0,0.0,0.0,0.0,0.0,0.0,0.0,0.0,1,1,0.0,1,1.0,0,1.0,0,1.0,0,1.0
77,24,'01',3.580582350203877E-4,0.002898205109017134,0.0,'Line_76_23',1796.3544938657549,0.0,0.0,0.0,0.0,0.0,0.0,0.0,0.0,0.0,0.0,0.0,0.0,0.0,0.0,0.0,1,1,0.0,1,1.0,0,1.0,0,1.0,0,1.0
77,26,'01',0.031391262097984304,0.4071072991940329,0.0,'Line_76_25',143.15246702329907,0.0,0.0,0.0,0.0,0.0,0.0,0.0,0.0,0.0,0.0,0.0,0.0,0.0,0.0,0.0,1,1,0.0,1,1.0,0,1.0,0,1.0,0,1.0
77,40,'01',0.0044076343614536965,0.136761814506769,0.0,'Line_76_39',331.97269605521325,0.0,0.0,0.0,0.0,0.0,0.0,0.0,0.0,0.0,0.0,0.0,0.0,0.0,0.0,0.0,1,1,0.0,1,1.0,0,1.0,0,1.0,0,1.0
77,48,'01',0.04086825268162276,0.21502788171031556,0.0,'Line_76_47',376.5035651330753,0.0,0.0,0.0,0.0,0.0,0.0,0.0,0.0,0.0,0.0,0.0,0.0,0.0,0.0,0.0,1,1,0.0,1,1.0,0,1.0,0,1.0,0,1.0
77,103,'01',0.02149898966275902,0.18797815322425024,0.0,'Line_76_102',261.47217500888064,0.0,0.0,0.0,0.0,0.0,0.0,0.0,0.0,0.0,0.0,0.0,0.0,0.0,0.0,0.0,1,1,0.0,1,1.0,0,1.0,0,1.0,0,1.0
77,104,'01',0.0015914197824141213,0.013827709390651633,0.0,'Line_76_103',2316.8346392290637,0.0,0.0,0.0,0.0,0.0,0.0,0.0,0.0,0.0,0.0,0.0,0.0,0.0,0.0,0.0,1,1,0.0,1,1.0,0,1.0,0,1.0,0,1.0
80,88,'01',0.0244411403703713,0.49940227338028387,0.0,'Line_79_87',838.1301507316184,0.0,0.0,0.0,0.0,0.0,0.0,0.0,0.0,0.0,0.0,0.0,0.0,0.0,0.0,0.0,1,1,0.0,1,1.0,0,1.0,0,1.0,0,1.0
81,36,'01',9.696996858392691E-4,0.014861478742986978,0.0,'Line_80_35',1383.7603653851259,0.0,0.0,0.0,0.0,0.0,0.0,0.0,0.0,0.0,0.0,0.0,0.0,0.0,0.0,0.0,1,1,0.0,1,1.0,0,1.0,0,1.0,0,1.0
81,39,'01',0.051948991081559245,0.4972939797801779,0.0,'Line_80_38',293.81633313265735,0.0,0.0,0.0,0.0,0.0,0.0,0.0,0.0,0.0,0.0,0.0,0.0,0.0,0.0,0.0,1,1,0.0,1,1.0,0,1.0,0,1.0,0,1.0
81,89,'01',0.01894937985988014,0.2586310710750078,0.0,'Line_80_88',177.9563730515938,0.0,0.0,0.0,0.0,0.0,0.0,0.0,0.0,0.0,0.0,0.0,0.0,0.0,0.0,0.0,1,1,0.0,1,1.0,0,1.0,0,1.0,0,1.0
82,23,'01',0.0015605790154752342,0.09649234115728064,0.0,'Line_81_22',2409.1853125157727,0.0,0.0,0.0,0.0,0.0,0.0,0.0,0.0,0.0,0.0,0.0,0.0,0.0,0.0,0.0,1,1,0.0,1,1.0,0,1.0,0,1.0,0,1.0
82,45,'01',0.017043645663057536,0.034802487109108445,0.0,'Line_81_44',149.86130890036438,0.0,0.0,0.0,0.0,0.0,0.0,0.0,0.0,0.0,0.0,0.0,0.0,0.0,0.0,0.0,1,1,0.0,1,1.0,0,1.0,0,1.0,0,1.0
82,98,'01',0.00490655102952581,0.03735721346439139,0.0,'Line_81_97',1107.4105856757867,0.0,0.0,0.0,0.0,0.0,0.0,0.0,0.0,0.0,0.0,0.0,0.0,0.0,0.0,0.0,1,1,0.0,1,1.0,0,1.0,0,1.0,0,1.0
84,21,'01',0.0014570684599910367,0.06747327574554712,0.0,'Line_83_20',1010.3072952743078,0.0,0.0,0.0,0.0,0.0,0.0,0.0,0.0,0.0,0.0,0.0,0.0,0.0,0.0,0.0,1,1,0.0,1,1.0,0,1.0,0,1.0,0,1.0
84,27,'01',0.0022629637395700166,0.01712200193000857,0.0,'Line_83_26',592.9512767351696,0.0,0.0,0.0,0.0,0.0,0.0,0.0,0.0,0.0,0.0,0.0,0.0,0.0,0.0,0.0,1,1,0.0,1,1.0,0,1.0,0,1.0,0,1.0
84,36,'01',3.838620356785478E-5,0.0026977304448035475,0.0,'Line_83_35',1325.8050476871535,0.0,0.0,0.0,0.0,0.0,0.0,0.0,0.0,0.0,0.0,0.0,0.0,0.0,0.0,0.0,1,1,0.0,1,1.0,0,1.0,0,1.0,0,1.0
84,44,'01',0.0013725340070856028,0.00780827018261743,0.0,'Line_83_43',373.4304508674446,0.0,0.0,0.0,0.0,0.0,0.0,0.0,0.0,0.0,0.0,0.0,0.0,0.0,0.0,0.0,1,1,0.0,1,1.0,0,1.0,0,1.0,0,1.0
84,50,'01',1.020229668456296E-4,0.01021553464116233,0.0,'Line_83_49',3288.5293402133266,0.0,0.0,0.0,0.0,0.0,0.0,0.0,0.0,0.0,0.0,0.0,0.0,0.0,0.0,0.0,1,1,0.0,1,1.0,0,1.0,0,1.0,0,1.0
84,108,'01',0.017971955243036238,0.45931513954607206,0.0,'Line_83_107',517.8614676242331,0.0,0.0,0.0,0.0,0.0,0.0,0.0,0.0,0.0,0.0,0.0,0.0,0.0,0.0,0.0,1,1,0.0,1,1.0,0,1.0,0,1.0,0,1.0
87,100,'01',0.005260916869220285,0.06060386514742991,0.0,'Line_86_99',1110.2611243992665,0.0,0.0,0.0,0.0,0.0,0.0,0.0,0.0,0.0,0.0,0.0,0.0,0.0,0.0,0.0,1,1,0.0,1,1.0,0,1.0,0,1.0,0,1.0
89,69,'01',0.00887393986839417,0.1605784248945383,0.0,'Line_88_68',601.6038568288914,0.0,0.0,0.0,0.0,0.0,0.0,0.0,0.0,0.0,0.0,0.0,0.0,0.0,0.0,0.0,1,1,0.0,1,1.0,0,1.0,0,1.0,0,1.0
91,29,'01',0.03626785985892777,0.4633196914623095,0.0,'Line_90_28',156.18155434790302,0.0,0.0,0.0,0.0,0.0,0.0,0.0,0.0,0.0,0.0,0.0,0.0,0.0,0.0,0.0,1,1,0.0,1,1.0,0,1.0,0,1.0,0,1.0
91,77,'01',3.7262691002641244E-4,0.0171890397089662,0.0,'Line_90_76',660.4827785733902,0.0,0.0,0.0,0.0,0.0,0.0,0.0,0.0,0.0,0.0,0.0,0.0,0.0,0.0,0.0,1,1,0.0,1,1.0,0,1.0,0,1.0,0,1.0
91,93,'01',3.093303487053653E-4,0.01377070751782104,0.0,'Line_90_92',694.610177595515,0.0,0.0,0.0,0.0,0.0,0.0,0.0,0.0,0.0,0.0,0.0,0.0,0.0,0.0,0.0,1,1,0.0,1,1.0,0,1.0,0,1.0,0,1.0
91,113,'01',0.0507247601892352,0.49742034407907415,0.0,'Line_90_112',220.82912083440385,0.0,0.0,0.0,0.0,0.0,0.0,0.0,0.0,0.0,0.0,0.0,0.0,0.0,0.0,0.0,1,1,0.0,1,1.0,0,1.0,0,1.0,0,1.0
91,115,'01',9.999999999999999E-6,0.002874156889047702,0.0,'Line_90_114',2282.9614586465837,0.0,0.0,0.0,0.0,0.0,0.0,0.0,0.0,0.0,0.0,0.0,0.0,0.0,0.0,0.0,1,1,0.0,1,1.0,0,1.0,0,1.0,0,1.0
92,70,'01',0.002726938771975873,0.06467221499830535,0.0,'Line_91_69',508.6171226129265,0.0,0.0,0.0,0.0,0.0,0.0,0.0,0.0,0.0,0.0,0.0,0.0,0.0,0.0,0.0,1,1,0.0,1,1.0,0,1.0,0,1.0,0,1.0
93,29,'01',1.2806753377701382E-4,0.002336145985924604,0.0,'Line_92_28',3078.150191054093,0.0,0.0,0.0,0.0,0.0,0.0,0.0,0.0,0.0,0.0,0.0,0.0,0.0,0.0,0.0,1,1,0.0,1,1.0,0,1.0,0,1.0,0,1.0
93,111,'01',0.014114667591505673,0.49980073645282014,0.0,'Line_92_110',124.69969087221287,0.0,0.0,0.0,0.0,0.0,0.0,0.0,0.0,0.0,0.0,0.0,0.0,0.0,0.0,0.0,1,1,0.0,1,1.0,0,1.0,0,1.0,0,1.0
94,110,'01',0.05400053977792867,0.49707538835039133,0.0,'Line_93_109',16.499056894642028,0.0,0.0,0.0,0.0,0.0,0.0,0.0,0.0,0.0,0.0,0.0,0.0,0.0,0.0,0.0,1,1,0.0,1,1.0,0,1.0,0,1.0,0,1.0
95,94,'01',0.0718302066189958,0.49481352186159216,0.0,'Line_94_93',1273.2074004411904,0.0,0.0,0.0,0.0,0.0,0.0,0.0,0.0,0.0,0.0,0.0,0.0,0.0,0.0,0.0,1,1,0.0,1,1.0,0,1.0,0,1.0,0,1.0
95,99,'01',4.231305001665362E-4,0.0027630213801394174,0.0,'Line_94_98',889.839268719638,0.0,0.0,0.0,0.0,0.0,0.0,0.0,0.0,0.0,0.0,0.0,0.0,0.0,0.0,0.0,1,1,0.0,1,1.0,0,1.0,0,1.0,0,1.0
95,110,'01',0.0040739535540095404,0.04036665636235066,0.0,'Line_94_109',309.4233199020124,0.0,0.0,0.0,0.0,0.0,0.0,0.0,0.0,0.0,0.0,0.0,0.0,0.0,0.0,0.0,1,1,0.0,1,1.0,0,1.0,0,1.0,0,1.0
95,118,'01',0.003576687521816223,0.03703834918183742,0.0,'Line_94_117',1814.320060893653,0.0,0.0,0.0,0.0,0.0,0.0,0.0,0.0,0.0,0.0,0.0,0.0,0.0,0.0,0.0,1,1,0.0,1,1.0,0,1.0,0,1.0,0,1.0
96,17,'01',0.06514356155989337,0.4957381530478488,0.0,'Line_95_16',97.76122453417354,0.0,0.0,0.0,0.0,0.0,0.0,0.0,0.0,0.0,0.0,0.0,0.0,0.0,0.0,0.0,1,1,0.0,1,1.0,0,1.0,0,1.0,0,1.0
96,112,'01',1.9456817070230808E-5,0.016050574395271196,0.0,'Line_95_111',1452.048169730269,0.0,0.0,0.0,0.0,0.0,0.0,0.0,0.0,0.0,0.0,0.0,0.0,0.0,0.0,0.0,1,1,0.0,1,1.0,0,1.0,0,1.0,0,1.0
97,104,'01',0.015921761933412847,0.05436893600751258,0.0,'Line_96_103',620.1378785709676,0.0,0.0,0.0,0.0,0.0,0.0,0.0,0.0,0.0,0.0,0.0,0.0,0.0,0.0,0.0,1,1,0.0,1,1.0,0,1.0,0,1.0,0,1.0
98,96,'01',0.002160711114740172,0.048540522859781964,0.0,'Line_97_95',180.49264263066704,0.0,0.0,0.0,0.0,0.0,0.0,0.0,0.0,0.0,0.0,0.0,0.0,0.0,0.0,0.0,1,1,0.0,1,1.0,0,1.0,0,1.0,0,1.0
98,115,'01',7.47231371666775E-4,0.007767246975941895,0.0,'Line_97_114',1194.5250505465638,0.0,0.0,0.0,0.0,0.0,0.0,0.0,0.0,0.0,0.0,0.0,0.0,0.0,0.0,0.0,1,1,0.0,1,1.0,0,1.0,0,1.0,0,1.0
99,24,'01',9.620681245943201E-4,0.016142100700019618,0.0,'Line_98_23',959.2415050287326,0.0,0.0,0.0,0.0,0.0,0.0,0.0,0.0,0.0,0.0,0.0,0.0,0.0,0.0,0.0,1,1,0.0,1,1.0,0,1.0,0,1.0,0,1.0
99,43,'01',0.03029419821589127,0.4990814177611267,0.0,'Line_98_42',293.9324450293313,0.0,0.0,0.0,0.0,0.0,0.0,0.0,0.0,0.0,0.0,0.0,0.0,0.0,0.0,0.0,1,1,0.0,1,1.0,0,1.0,0,1.0,0,1.0
99,76,'01',0.0017448457124101333,0.18821747983699685,0.0,'Line_98_75',1681.0763074662168,0.0,0.0,0.0,0.0,0.0,0.0,0.0,0.0,0.0,0.0,0.0,0.0,0.0,0.0,0.0,1,1,0.0,1,1.0,0,1.0,0,1.0,0,1.0
99,81,'01',1.9322238361590364E-4,0.0011602981012873942,0.0,'Line_98_80',2716.205200226498,0.0,0.0,0.0,0.0,0.0,0.0,0.0,0.0,0.0,0.0,0.0,0.0,0.0,0.0,0.0,1,1,0.0,1,1.0,0,1.0,0,1.0,0,1.0
100,52,'01',0.017129177634689113,0.39359560202451704,0.0,'Line_99_51',163.43218000399966,0.0,0.0,0.0,0.0,0.0,0.0,0.0,0.0,0.0,0.0,0.0,0.0,0.0,0.0,0.0,1,1,0.0,1,1.0,0,1.0,0,1.0,0,1.0
100,83,'01',4.048799238688308E-4,0.011353024486125095,0.0,'Line_99_82',580.27335879231,0.0,0.0,0.0,0.0,0.0,0.0,0.0,0.0,0.0,0.0,0.0,0.0,0.0,0.0,0.0,1,1,0.0,1,1.0,0,1.0,0,1.0,0,1.0
103,26,'01',0.06658380901006783,0.4955467650764263,0.0,'Line_102_25',361.2981804474606,0.0,0.0,0.0,0.0,0.0,0.0,0.0,0.0,0.0,0.0,0.0,0.0,0.0,0.0,0.0,1,1,0.0,1,1.0,0,1.0,0,1.0,0,1.0
104,85,'01',0.007334492228341001,0.029513781492343145,0.0,'Line_103_84',4072.6996991239575,0.0,0.0,0.0,0.0,0.0,0.0,0.0,0.0,0.0,0.0,0.0,0.0,0.0,0.0,0.0,1,1,0.0,1,1.0,0,1.0,0,1.0,0,1.0
105,53,'01',5.658725816633018E-4,0.019325773915860555,0.0,'Line_104_52',3869.567256780382,0.0,0.0,0.0,0.0,0.0,0.0,0.0,0.0,0.0,0.0,0.0,0.0,0.0,0.0,0.0,1,1,0.0,1,1.0,0,1.0,0,1.0,0,1.0
106,114,'01',0.01100290074279624,0.07763453597176785,0.0,'Line_105_113',1049.145448321677,0.0,0.0,0.0,0.0,0.0,0.0,0.0,0.0,0.0,0.0,0.0,0.0,0.0,0.0,0.0,1,1,0.0,1,1.0,0,1.0,0,1.0,0,1.0
107,42,'01',0.009371532027055447,0.49991216667277244,0.0,'Line_106_41',485.39411523803375,0.0,0.0,0.0,0.0,0.0,0.0,0.0,0.0,0.0,0.0,0.0,0.0,0.0,0.0,0.0,1,1,0.0,1,1.0,0,1.0,0,1.0,0,1.0
109,54,'01',0.013202994354378971,0.2855103990849466,0.0,'Line_108_53',279.13435400708863,0.0,0.0,0.0,0.0,0.0,0.0,0.0,0.0,0.0,0.0,0.0,0.0,0.0,0.0,0.0,1,1,0.0,1,1.0,0,1.0,0,1.0,0,1.0
109,117,'01',0.008380565238619417,0.07335399445526695,0.0,'Line_108_116',2587.82458775146,0.0,0.0,0.0,0.0,0.0,0.0,0.0,0.0,0.0,0.0,0.0,0.0,0.0,0.0,0.0,1,1,0.0,1,1.0,0,1.0,0,1.0,0,1.0
110,43,'01',0.03564526788162779,0.2246555683296684,0.0,'Line_109_42',235.7422155341157,0.0,0.0,0.0,0.0,0.0,0.0,0.0,0.0,0.0,0.0,0.0,0.0,0.0,0.0,0.0,1,1,0.0,1,1.0,0,1.0,0,1.0,0,1.0
113,30,'01',0.04140325645964085,0.3752408572036273,0.0,'Line_112_29',257.5317476294314,0.0,0.0,0.0,0.0,0.0,0.0,0.0,0.0,0.0,0.0,0.0,0.0,0.0,0.0,0.0,1,1,0.0,1,1.0,0,1.0,0,1.0,0,1.0
113,75,'01',0.029269007757590573,0.44924879469014506,0.0,'Line_112_74',151.31480531971118,0.0,0.0,0.0,0.0,0.0,0.0,0.0,0.0,0.0,0.0,0.0,0.0,0.0,0.0,0.0,1,1,0.0,1,1.0,0,1.0,0,1.0,0,1.0
114,87,'01',0.0035491978201266645,0.25033026671169306,0.0,'Line_113_86',443.0944404213956,0.0,0.0,0.0,0.0,0.0,0.0,0.0,0.0,0.0,0.0,0.0,0.0,0.0,0.0,0.0,1,1,0.0,1,1.0,0,1.0,0,1.0,0,1.0
115,38,'01',0.017908062520796197,0.11002842727750689,0.0,'Line_114_37',671.6450132844118,0.0,0.0,0.0,0.0,0.0,0.0,0.0,0.0,0.0,0.0,0.0,0.0,0.0,0.0,0.0,1,1,0.0,1,1.0,0,1.0,0,1.0,0,1.0
116,42,'01',0.0034013230356855924,0.15398774979678975,0.0,'Line_115_41',144.22704264289223,0.0,0.0,0.0,0.0,0.0,0.0,0.0,0.0,0.0,0.0,0.0,0.0,0.0,0.0,0.0,1,1,0.0,1,1.0,0,1.0,0,1.0,0,1.0
116,86,'01',0.016554251796142838,0.2181020940678195,0.0,'Line_115_85',102.006294756885,0.0,0.0,0.0,0.0,0.0,0.0,0.0,0.0,0.0,0.0,0.0,0.0,0.0,0.0,0.0,1,1,0.0,1,1.0,0,1.0,0,1.0,0,1.0
117,72,'01',0.049683842927505606,0.49752539206753554,0.0,'Line_116_71',150.74479428649707,0.0,0.0,0.0,0.0,0.0,0.0,0.0,0.0,0.0,0.0,0.0,0.0,0.0,0.0,0.0,1,1,0.0,1,1.0,0,1.0,0,1.0,0,1.0
0 / END OF BRANCH DATA, BEGIN SYSTEM SWITCHING DEVICE DATA
0 / END OF SYSTEM SWITCHING DEVICE DATA, BEGIN TRANSFORMER DATA
1,70,0,'01',1,1,1,0.0,-0.0,2,'Trafo_0_69',1,1,1.0,0,1.0,0,1.0,0,1.0,'            ',0
4.6255643599650994E-5,0.004625333075964857,100.0
1.0,0.0,0.0,0.0,0.0,0.0,0.0,0.0,0.0,0.0,0.0,0.0,0.0,0.0,0.0,0,0,0,1.1,0.9,1.1,0.9,33,0,0.0,0.0,0.0
1.0,0.0
4,37,0,'01',1,1,1,0.0,-0.0,2,'Trafo_3_36',1,1,1.0,0,1.0,0,1.0,0,1.0,'            ',0
2.3841251614460046E-5,0.0023840059522076272,100.0
1.0,0.0,0.0,0.0,0.0,0.0,0.0,0.0,0.0,0.0,0.0,0.0,0.0,0.0,0.0,0,0,0,1.1,0.9,1.1,0.9,33,0,0.0,0.0,0.0
1.0,0.0
5,68,0,'01',1,1,1,0.0,-0.0,2,'Trafo_4_67',1,1,1.0,0,1.0,0,1.0,0,1.0,'            ',0
3.6589889629270485E-4,0.03658806008904938,100.0
1.0,0.0,0.0,0.0,0.0,0.0,0.0,0.0,0.0,0.0,0.0,0.0,0.0,0.0,0.0,0,0,0,1.1,0.9,1.1,0.9,33,0,0.0,0.0,0.0
1.0,0.0
6,80,0,'01',1,1,1,0.0,-0.0,2,'Trafo_79_5',1,1,1.0,0,1.0,0,1.0,0,1.0,'            ',0
1.1268034789733602E-4,0.011267471373908364,100.0
1.0,0.0,0.0,0.0,0.0,0.0,0.0,0.0,0.0,0.0,0.0,0.0,0.0,0.0,0.0,0,0,0,1.1,0.9,1.1,0.9,33,0,0.0,0.0,0.0
1.0,0.0
7,29,0,'01',1,1,1,0.0,-0.0,2,'Trafo_28_6',1,1,1.0,0,1.0,0,1.0,0,1.0,'            ',0
0.0034112629430928672,0.34110923756814204,100.0
1.0,0.0,0.0,0.0,0.0,0.0,0.0,0.0,0.0,0.0,0.0,0.0,0.0,0.0,0.0,0,0,0,1.1,0.9,1.1,0.9,33,0,0.0,0.0,0.0
1.0,0.0
8,47,0,'01',1,1,1,0.0,-0.0,2,'Trafo_46_7',1,1,1.0,0,1.0,0,1.0,0,1.0,'            ',0
2.280622142308211E-4,0.022805081083501755,100.0
1.0,0.0,0.0,0.0,0.0,0.0,0.0,0.0,0.0,0.0,0.0,0.0,0.0,0.0,0.0,0,0,0,1.1,0.9,1.1,0.9,33,0,0.0,0.0,0.0
1.0,0.0
9,15,0,'01',1,1,1,0.0,-0.0,2,'Trafo_8_14',1,1,1.0,0,1.0,0,1.0,0,1.0,'            ',0
4.488882848504006E-5,0.0044886583987501965,100.0
1.0,0.0,0.0,0.0,0.0,0.0,0.0,0.0,0.0,0.0,0.0,0.0,0.0,0.0,0.0,0,0,0,1.1,0.9,1.1,0.9,33,0,0.0,0.0,0.0
1.0,0.0
9,66,0,'01',1,1,1,0.0,-0.0,2,'Trafo_8_65',1,1,1.0,0,1.0,0,1.0,0,1.0,'            ',0
0.0015931670853659176,0.15930874250200913,100.0
1.0,0.0,0.0,0.0,0.0,0.0,0.0,0.0,0.0,0.0,0.0,0.0,0.0,0.0,0.0,0,0,0,1.1,0.9,1.1,0.9,33,0,0.0,0.0,0.0
1.0,0.0
10,15,0,'01',1,1,1,0.0,-0.0,2,'Trafo_9_14',1,1,1.0,0,1.0,0,1.0,0,1.0,'            ',0
1.4738936002493505E-5,0.0014738199037268788,100.0
1.0,0.0,0.0,0.0,0.0,0.0,0.0,0.0,0.0,0.0,0.0,0.0,0.0,0.0,0.0,0,0,0,1.1,0.9,1.1,0.9,33,0,0.0,0.0,0.0
1.0,0.0
10,20,0,'01',1,1,1,0.0,-0.0,2,'Trafo_19_9',1,1,1.0,0,1.0,0,1.0,0,1.0,'            ',0
5.3470460451407344E-5,0.005346778686154336,100.0
1.0,0.0,0.0,0.0,0.0,0.0,0.0,0.0,0.0,0.0,0.0,0.0,0.0,0.0,0.0,0,0,0,1.1,0.9,1.1,0.9,33,0,0.0,0.0,0.0
1.0,0.0
11,15,0,'01',1,1,1,0.0,-0.0,2,'Trafo_10_14',1,1,1.0,0,1.0,0,1.0,0,1.0,'            ',0
0.002064403766449157,0.20643005436802012,100.0
1.0,0.0,0.0,0.0,0.0,0.0,0.0,0.0,0.0,0.0,0.0,0.0,0.0,0.0,0.0,0,0,0,1.1,0.9,1.1,0.9,33,0,0.0,0.0,0.0
1.0,0.0
15,72,0,'01',1,1,1,0.0,-0.0,2,'Trafo_71_14',1,1,1.0,0,1.0,0,1.0,0,1.0,'            ',0
2.6865224076522638E-5,0.00268638807817356,100.0
1.0,0.0,0.0,0.0,0.0,0.0,0.0,0.0,0.0,0.0,0.0,0.0,0.0,0.0,0.0,0,0,0,1.1,0.9,1.1,0.9,33,0,0.0,0.0,0.0
1.0,0.0
16,85,0,'01',1,1,1,0.0,-0.0,2,'Trafo_84_15',1,1,1.0,0,1.0,0,1.0,0,1.0,'            ',0
5.836613469419792E-4,0.05836321631450189,100.0
1.0,0.0,0.0,0.0,0.0,0.0,0.0,0.0,0.0,0.0,0.0,0.0,0.0,0.0,0.0,0,0,0,1.1,0.9,1.1,0.9,33,0,0.0,0.0,0.0
1.0,0.0
0 / END OF TRANSFORMER DATA, BEGIN AREA DATA
0 / END OF AREA DATA, BEGIN TWO-TERMINAL DC DATA
0 / END OF TWO-TERMINAL DC DATA, BEGIN VOLTAGE SOURCE CONVERTER DATA
0 / END OF VOLTAGE SOURCE CONVERTER DATA, BEGIN IMPEDANCE CORRECTION DATA
0 / END OF IMPEDANCE CORRECTION DATA, BEGIN MULTI-TERMINAL DC DATA
0 / END OF MULTI-TERMINAL DC DATA, BEGIN MULTI-SECTION LINE DATA
0 / END OF MULTI-SECTION LINE DATA, BEGIN ZONE DATA
0 / END OF ZONE DATA, BEGIN INTER-AREA TRANSFER DATA
0 / END OF INTER-AREA TRANSFER DATA, BEGIN OWNER DATA
0 / END OF OWNER DATA, BEGIN FACTS CONTROL DEVICE DATA
0 / END OF FACTS CONTROL DEVICE DATA, BEGIN SWITCHED SHUNT DATA
0 / END OF SWITCHED SHUNT DATA, BEGIN GNE DEVICE DATA
0 / END OF GNE DEVICE DATA, BEGIN INDUCTION MACHINE DATA
0 / END OF INDUCTION MACHINE DATA, BEGIN SUBSTATION DATA
0 / END OF SUBSTATION DATA
Q
